/*--------------------------------*- C++ -*----------------------------------*\
  =========                 |
  \\      /  F ield         | OpenFOAM: The Open Source CFD Toolbox
   \\    /   O peration     | Website:  https://openfoam.org
    \\  /    A nd           | Version:  10
     \\/     M anipulation  |
\*---------------------------------------------------------------------------*/
FoamFile
{
    format      ascii;
    class       volScalarField;
    location    "0";
    object      T;
}
// * * * * * * * * * * * * * * * * * * * * * * * * * * * * * * * * * * * * * //

dimensions      [0 0 0 1 0 0 0];

internalField   uniform 300;

boundaryField
{
    fluid_back
    {
        type            zeroGradient;
        // type            fixedValue;
        // value           uniform 307.75; // 34.6 degC
    }
    fluid_bottom
    {
        type            zeroGradient;
        // type            fixedValue;
        // value           uniform 307.75; // 34.6 degC
    }
    fluid_left
    {
        type            zeroGradient;
        // type            fixedValue;
        // value           uniform 307.75; // 34.6 degC
    }
    fluid_front
    {
        type            zeroGradient;
        // type            fixedValue;
        // value           uniform 307.75; // 34.6 degC
    }
    fluid_right
    {
        type            zeroGradient;
        // type            fixedValue;
        // value           uniform 307.75; // 34.6 degC
    }
    fluid_top
    {
        type            zeroGradient;
        // type            fixedValue;
        // value           uniform 307.75; // 34.6 degC
    }
}


// ************************************************************************* //
