/*--------------------------------*- C++ -*----------------------------------*\
  =========                 |
  \\      /  F ield         | OpenFOAM: The Open Source CFD Toolbox
   \\    /   O peration     | Website:  https://openfoam.org
    \\  /    A nd           | Version:  10
     \\/     M anipulation  |
\*---------------------------------------------------------------------------*/
FoamFile
{
    format      ascii;
    class       volVectorField;
    location    "0";
    object      U;
}
// * * * * * * * * * * * * * * * * * * * * * * * * * * * * * * * * * * * * * //

dimensions      [0 1 -1 0 0 0 0];

internalField   uniform (0.1 0 0);

boundaryField
{
    fluid_back
    {
        type            noSlip;
    }
    fluid_bottom
    {
        type            noSlip;
    }
    fluid_left
    {
        type            noSlip;
    }
    fluid_front
    {
        type            noSlip;
    }
    fluid_right
    {
        type            noSlip;
    }
    fluid_top
    {
        type            noSlip;
    }
}


// ************************************************************************* //
