/*--------------------------------*- C++ -*----------------------------------*\
  =========                 |
  \\      /  F ield         | OpenFOAM: The Open Source CFD Toolbox
   \\    /   O peration     | Website:  https://openfoam.org
    \\  /    A nd           | Version:  10
     \\/     M anipulation  |
\*---------------------------------------------------------------------------*/
FoamFile
{
    format      ascii;
    class       polyBoundaryMesh;
    location    "constant/polyMesh";
    object      boundary;
}
// * * * * * * * * * * * * * * * * * * * * * * * * * * * * * * * * * * * * * //

6
(
    fluid_back
    {
        type            wall;
        physicalType    patch;
        nFaces          1050;
        startFace       2015;
    }
    fluid_bottom
    {
        type            wall;
        physicalType    patch;
        nFaces          70;
        startFace       3065;
    }
    fluid_left
    {
        type            wall;
        physicalType    patch;
        nFaces          15;
        startFace       3135;
    }
    fluid_front
    {
        type            wall;
        physicalType    patch;
        nFaces          1050;
        startFace       3150;
    }
    fluid_right
    {
        type            wall;
        physicalType    patch;
        nFaces          15;
        startFace       4200;
    }
    fluid_top
    {
        type            wall;
        physicalType    patch;
        nFaces          70;
        startFace       4215;
    }
)

// ************************************************************************* //
